16
Coordinates from ORCA-job /home/vladimir/git/private/ORCA/C8H8/T-cubane-1/MP2/cc-pVDZ/./cubane
  H   2.06550332740510      1.28278631652391     -0.01622287056312
  C   1.07458662971218      0.80751148146986      0.05660438028355
  H   2.06550332740394     -1.28278631652385     -0.01622287056240
  C   1.07458662971120     -0.80751148146902      0.05660438028423
  H   0.00000000000104      1.50276287873328      2.06534361737680
  C   0.00000000000063      1.33037507706641      0.98143072276210
  H   -0.00000000000044     -1.50276287873383      2.06534361737766
  C   -0.00000000000045     -1.33037507706582      0.98143072276326
  H   0.00000000000031      1.45938454710627     -1.96307131071330
  C   0.00000000000048      0.77724238373207     -1.10060052606186
  H   0.00000000000037     -1.45938454710545     -1.96307131071429
  C   0.00000000000010     -0.77724238373159     -1.10060052606192
  H   -2.06550332740533      1.28278631652335     -0.01622287056248
  C   -1.07458662971211      0.80751148146986      0.05660438028380
  H   -2.06550332740473     -1.28278631652548     -0.01622287056284
  C   -1.07458662971229     -0.80751148146996      0.05660438028413
