    16
 geometry
 H                     1.42347382     1.42347382     1.42347382
 H                    -1.42347382    -1.42347382     1.42347382
 H                    -1.42347382     1.42347382    -1.42347382
 H                     1.42347382    -1.42347382    -1.42347382
 H                     1.42347382     1.42347382    -1.42347382
 H                    -1.42347382    -1.42347382    -1.42347382
 H                     1.42347382    -1.42347382     1.42347382
 H                    -1.42347382     1.42347382     1.42347382
 C                     0.78811661     0.78811661     0.78811661
 C                    -0.78811661    -0.78811661     0.78811661
 C                    -0.78811661     0.78811661    -0.78811661
 C                     0.78811661    -0.78811661    -0.78811661
 C                     0.78811661     0.78811661    -0.78811661
 C                    -0.78811661    -0.78811661    -0.78811661
 C                     0.78811661    -0.78811661     0.78811661
 C                    -0.78811661     0.78811661     0.78811661
