    16
 geometry
 H                     1.42345400     1.42345400     1.42345400
 H                    -1.42345400    -1.42345400     1.42345400
 H                    -1.42345400     1.42345400    -1.42345400
 H                     1.42345400    -1.42345400    -1.42345400
 H                     1.42345400     1.42345400    -1.42345400
 H                    -1.42345400    -1.42345400    -1.42345400
 H                     1.42345400    -1.42345400     1.42345400
 H                    -1.42345400     1.42345400     1.42345400
 C                     0.78811233     0.78811233     0.78811233
 C                    -0.78811233    -0.78811233     0.78811233
 C                    -0.78811233     0.78811233    -0.78811233
 C                     0.78811233    -0.78811233    -0.78811233
 C                     0.78811233     0.78811233    -0.78811233
 C                    -0.78811233    -0.78811233    -0.78811233
 C                     0.78811233    -0.78811233     0.78811233
 C                    -0.78811233     0.78811233     0.78811233
