    16
 geometry
 H                     1.42306061     1.42306061     1.42306061
 H                    -1.42306061    -1.42306061     1.42306061
 H                    -1.42306061     1.42306061    -1.42306061
 H                     1.42306061    -1.42306061    -1.42306061
 H                     1.42306061     1.42306061    -1.42306061
 H                    -1.42306061    -1.42306061    -1.42306061
 H                     1.42306061    -1.42306061     1.42306061
 H                    -1.42306061     1.42306061     1.42306061
 C                     0.78724502     0.78724502     0.78724502
 C                    -0.78724502    -0.78724502     0.78724502
 C                    -0.78724502     0.78724502    -0.78724502
 C                     0.78724502    -0.78724502    -0.78724502
 C                     0.78724502     0.78724502    -0.78724502
 C                    -0.78724502    -0.78724502    -0.78724502
 C                     0.78724502    -0.78724502     0.78724502
 C                    -0.78724502     0.78724502     0.78724502
