    16
 geometry
 H                     1.42500000     1.42500000     1.42500000
 H                    -1.42500000    -1.42500000     1.42500000
 H                    -1.42500000     1.42500000    -1.42500000
 H                     1.42500000    -1.42500000    -1.42500000
 H                    -1.42500000    -1.42500000    -1.42500000
 H                     1.42500000     1.42500000    -1.42500000
 H                     1.42500000    -1.42500000     1.42500000
 H                    -1.42500000     1.42500000     1.42500000
 C                     0.78960000     0.78960000     0.78960000
 C                    -0.78960000    -0.78960000     0.78960000
 C                    -0.78960000     0.78960000    -0.78960000
 C                     0.78960000    -0.78960000    -0.78960000
 C                    -0.78960000    -0.78960000    -0.78960000
 C                     0.78960000     0.78960000    -0.78960000
 C                     0.78960000    -0.78960000     0.78960000
 C                    -0.78960000     0.78960000     0.78960000
