    16
 geometry
 H                     1.41070000     1.41070000     1.41070000
 H                    -1.41070000    -1.41070000     1.41070000
 H                    -1.41070000     1.41070000    -1.41070000
 H                     1.41070000    -1.41070000    -1.41070000
 H                     1.41070000     1.41070000    -1.41070000
 H                    -1.41070000    -1.41070000    -1.41070000
 H                     1.41070000    -1.41070000     1.41070000
 H                    -1.41070000     1.41070000     1.41070000
 C                     0.78110000     0.78110000     0.78110000
 C                    -0.78110000    -0.78110000     0.78110000
 C                    -0.78110000     0.78110000    -0.78110000
 C                     0.78110000    -0.78110000    -0.78110000
 C                     0.78110000     0.78110000    -0.78110000
 C                    -0.78110000    -0.78110000    -0.78110000
 C                     0.78110000    -0.78110000     0.78110000
 C                    -0.78110000     0.78110000     0.78110000
