    16
 geometry
 H                     1.40702490     1.40702490     1.40702490
 H                    -1.40702490    -1.40702490     1.40702490
 H                    -1.40702490     1.40702490    -1.40702490
 H                     1.40702490    -1.40702490    -1.40702490
 H                     1.40702490     1.40702490    -1.40702490
 H                    -1.40702490    -1.40702490    -1.40702490
 H                     1.40702490    -1.40702490     1.40702490
 H                    -1.40702490     1.40702490     1.40702490
 C                     0.78093200     0.78093200     0.78093200
 C                    -0.78093200    -0.78093200     0.78093200
 C                    -0.78093200     0.78093200    -0.78093200
 C                     0.78093200    -0.78093200    -0.78093200
 C                     0.78093200     0.78093200    -0.78093200
 C                    -0.78093200    -0.78093200    -0.78093200
 C                     0.78093200    -0.78093200     0.78093200
 C                    -0.78093200     0.78093200     0.78093200
