    16
 geometry
 H                     1.40748294     1.40748294     1.40748294
 H                    -1.40748294    -1.40748294     1.40748294
 H                    -1.40748294     1.40748294    -1.40748294
 H                     1.40748294    -1.40748294    -1.40748294
 H                     1.40748294     1.40748294    -1.40748294
 H                    -1.40748294    -1.40748294    -1.40748294
 H                     1.40748294    -1.40748294     1.40748294
 H                    -1.40748294     1.40748294     1.40748294
 C                     0.77918220     0.77918220     0.77918220
 C                    -0.77918220    -0.77918220     0.77918220
 C                    -0.77918220     0.77918220    -0.77918220
 C                     0.77918220    -0.77918220    -0.77918220
 C                     0.77918220     0.77918220    -0.77918220
 C                    -0.77918220    -0.77918220    -0.77918220
 C                     0.77918220    -0.77918220     0.77918220
 C                    -0.77918220     0.77918220     0.77918220
