    16
 geometry
 H                     2.04736241    -1.28309607     0.01410880
 C                     1.07000559    -0.81254005    -0.05742629
 H                     2.04736241     1.28309607     0.01410880
 C                     1.07000559     0.81254005    -0.05742629
 H                     0.00000000    -1.61006438    -2.01424027
 C                     0.00000000    -1.32343588    -0.97121580
 H                     0.00000000     1.61006438    -2.01424027
 C                     0.00000000     1.32343588    -0.97121580
 H                     0.00000000    -1.43822871     1.94735706
 C                     0.00000000    -0.77026527     1.09266522
 H                     0.00000000     1.43822871     1.94735706
 C                     0.00000000     0.77026527     1.09266522
 H                    -2.04736241    -1.28309607     0.01410880
 C                    -1.07000559    -0.81254005    -0.05742629
 H                    -2.04736241     1.28309607     0.01410880
 C                    -1.07000559     0.81254005    -0.05742629
