    16
 geometry
 H                     1.40080932     1.40080932     1.40080932
 H                    -1.40080932    -1.40080932     1.40080932
 H                    -1.40080932     1.40080932    -1.40080932
 H                     1.40080932    -1.40080932    -1.40080932
 H                     1.40080932     1.40080932    -1.40080932
 H                    -1.40080932    -1.40080932    -1.40080932
 H                     1.40080932    -1.40080932     1.40080932
 H                    -1.40080932     1.40080932     1.40080932
 C                     0.77851101     0.77851101     0.77851101
 C                    -0.77851101    -0.77851101     0.77851101
 C                    -0.77851101     0.77851101    -0.77851101
 C                     0.77851101    -0.77851101    -0.77851101
 C                     0.77851101     0.77851101    -0.77851101
 C                    -0.77851101    -0.77851101    -0.77851101
 C                     0.77851101    -0.77851101     0.77851101
 C                    -0.77851101     0.77851101     0.77851101
