    16
 geometry
 H                     2.05734315    -1.32981314     0.02497121
 C                     1.09521050    -0.79607308    -0.03872712
 H                     2.05734315     1.32981314     0.02497121
 C                     1.09521050     0.79607308    -0.03872712
 H                     0.00000000    -1.59258501    -2.05036145
 C                     0.00000000    -1.20794635    -1.02589851
 H                     0.00000000     1.59258501    -2.05036145
 C                     0.00000000     1.20794635    -1.02589851
 H                     0.00000000    -1.45029216     1.97989859
 C                     0.00000000    -0.78107108     1.10677260
 H                     0.00000000     1.45029216     1.97989859
 C                     0.00000000     0.78107108     1.10677260
 H                    -2.05734315    -1.32981314     0.02497121
 C                    -1.09521050    -0.79607308    -0.03872712
 H                    -2.05734315     1.32981314     0.02497121
 C                    -1.09521050     0.79607308    -0.03872712
