16
Coordinates from ORCA-job /home/vladimir/git/private/ORCA/C8H8/T-cubane-1/MP2/cc-pVTZ/./cubane
  H   2.04591507835676      1.27268472113104     -0.01382834181665
  C   1.06732554932288      0.80528061265052      0.05737608406326
  H   2.04591507836464     -1.27268472111570     -0.01382834178586
  C   1.06732554932813     -0.80528061263747      0.05737608408249
  H   0.00000000001937      1.52675107887127      2.03527263456352
  C   0.00000000000588      1.31636554155920      0.97394578478122
  H   -0.00000000001818     -1.52675107889413      2.03527263455108
  C   -0.00000000000752     -1.31636554156585      0.97394578477621
  H   -0.00000000000886      1.44684896647043     -1.94318826314698
  C   -0.00000000000430      0.77157719359661     -1.09375471540247
  H   0.00000000001409     -1.44684896647981     -1.94318826313061
  C   0.00000000000782     -0.77157719359814     -1.09375471539196
  H   -2.04591507836238      1.27268472112262     -0.01382834178917
  C   -1.06732554932525      0.80528061264676      0.05737608407661
  H   -2.04591507836461     -1.27268472111353     -0.01382834180755
  C   -1.06732554932846     -0.80528061264381      0.05737608407047
