    16
 geometry
 H                     0.00000000     2.34922218    -1.40292023
 C                     0.00000000     1.34498908    -0.99534232
 H                     0.00000000    -2.34922218    -1.40292023
 C                     0.00000000    -1.34498908    -0.99534232
 H                     2.04133908     1.27216004     0.00110057
 C                     1.06829344     0.79114848    -0.07899030
 H                     2.04133908    -1.27216004     0.00110057
 C                     1.06829344    -0.79114848    -0.07899030
 H                     0.00000000    -1.44100880     1.92170379
 C                     0.00000000    -0.76881472     1.06649212
 H                     0.00000000     1.44100880     1.92170379
 C                     0.00000000     0.76881472     1.06649212
 H                    -2.04133908     1.27216004     0.00110057
 C                    -1.06829344     0.79114848    -0.07899030
 H                    -2.04133908    -1.27216004     0.00110057
 C                    -1.06829344    -0.79114848    -0.07899030
