    16
 geometry
 H                     0.00000000     2.36728145    -1.41796306
 C                     0.00000000     1.35431522    -0.99722953
 H                     0.00000000    -2.36728145    -1.41796306
 C                     0.00000000    -1.35431522    -0.99722953
 H                     2.06774151     1.28214827    -0.00454947
 C                     1.08132297     0.79973885    -0.08131494
 H                     2.06774151    -1.28214827    -0.00454947
 C                     1.08132297    -0.79973885    -0.08131494
 H                     0.00000000    -1.47062886     1.93875613
 C                     0.00000000    -0.77993762     1.08231921
 H                     0.00000000     1.47062886     1.93875613
 C                     0.00000000     0.77993762     1.08231921
 H                    -2.06774151     1.28214827    -0.00454947
 C                    -1.08132297     0.79973885    -0.08131494
 H                    -2.06774151    -1.28214827    -0.00454947
 C                    -1.08132297    -0.79973885    -0.08131494
