    16
 geometry
 H                     1.41001962     1.41001962     1.41001962
 H                    -1.41001962    -1.41001962     1.41001962
 H                    -1.41001962     1.41001962    -1.41001962
 H                     1.41001962    -1.41001962    -1.41001962
 H                     1.41001962     1.41001962    -1.41001962
 H                    -1.41001962    -1.41001962    -1.41001962
 H                     1.41001962    -1.41001962     1.41001962
 H                    -1.41001962     1.41001962     1.41001962
 C                     0.78312104     0.78312104     0.78312104
 C                    -0.78312104    -0.78312104     0.78312104
 C                    -0.78312104     0.78312104    -0.78312104
 C                     0.78312104    -0.78312104    -0.78312104
 C                     0.78312104     0.78312104    -0.78312104
 C                    -0.78312104    -0.78312104    -0.78312104
 C                     0.78312104    -0.78312104     0.78312104
 C                    -0.78312104     0.78312104     0.78312104
