    16
 geometry
 H                     1.41379370     1.41379370     1.41379370
 H                    -1.41379370    -1.41379370     1.41379370
 H                    -1.41379370     1.41379370    -1.41379370
 H                     1.41379370    -1.41379370    -1.41379370
 H                     1.41379370     1.41379370    -1.41379370
 H                    -1.41379370    -1.41379370    -1.41379370
 H                     1.41379370    -1.41379370     1.41379370
 H                    -1.41379370     1.41379370     1.41379370
 C                     0.78287399     0.78287399     0.78287399
 C                    -0.78287399    -0.78287399     0.78287399
 C                    -0.78287399     0.78287399    -0.78287399
 C                     0.78287399    -0.78287399    -0.78287399
 C                     0.78287399     0.78287399    -0.78287399
 C                    -0.78287399    -0.78287399    -0.78287399
 C                     0.78287399    -0.78287399     0.78287399
 C                    -0.78287399     0.78287399     0.78287399
