    16
 geometry
 H                     1.41419831     1.41419831     1.41419831
 H                    -1.41419831    -1.41419831     1.41419831
 H                    -1.41419831     1.41419831    -1.41419831
 H                     1.41419831    -1.41419831    -1.41419831
 H                     1.41419831     1.41419831    -1.41419831
 H                    -1.41419831    -1.41419831    -1.41419831
 H                     1.41419831    -1.41419831     1.41419831
 H                    -1.41419831     1.41419831     1.41419831
 C                     0.78307882     0.78307882     0.78307882
 C                    -0.78307882    -0.78307882     0.78307882
 C                    -0.78307882     0.78307882    -0.78307882
 C                     0.78307882    -0.78307882    -0.78307882
 C                     0.78307882     0.78307882    -0.78307882
 C                    -0.78307882    -0.78307882    -0.78307882
 C                     0.78307882    -0.78307882     0.78307882
 C                    -0.78307882     0.78307882     0.78307882
