    16
 geometry
 H                     1.41900073     1.41900073     1.41900073
 H                    -1.41900073    -1.41900073     1.41900073
 H                    -1.41900073     1.41900073    -1.41900073
 H                     1.41900073    -1.41900073    -1.41900073
 H                     1.41900073     1.41900073    -1.41900073
 H                    -1.41900073    -1.41900073    -1.41900073
 H                     1.41900073    -1.41900073     1.41900073
 H                    -1.41900073     1.41900073     1.41900073
 C                     0.78435179     0.78435179     0.78435179
 C                    -0.78435179    -0.78435179     0.78435179
 C                    -0.78435179     0.78435179    -0.78435179
 C                     0.78435179    -0.78435179    -0.78435179
 C                     0.78435179     0.78435179    -0.78435179
 C                    -0.78435179    -0.78435179    -0.78435179
 C                     0.78435179    -0.78435179     0.78435179
 C                    -0.78435179     0.78435179     0.78435179
