    16
 geometry
 H                     0.00000000     2.37993241    -1.41209100
 C                     0.00000000     1.35822093    -1.00697820
 H                     0.00000000    -2.37993241    -1.41209100
 C                     0.00000000    -1.35822093    -1.00697820
 H                     2.07208932     1.29123000    -0.01795112
 C                     1.08530829     0.80405625    -0.09006307
 H                     2.07208932    -1.29123000    -0.01795112
 C                     1.08530829    -0.80405625    -0.09006307
 H                     0.00000000    -1.47021325     1.93920215
 C                     0.00000000    -0.78284427     1.07690446
 H                     0.00000000     1.47021325     1.93920215
 C                     0.00000000     0.78284427     1.07690446
 H                    -2.07208932     1.29123000    -0.01795112
 C                    -1.08530829     0.80405625    -0.09006307
 H                    -2.07208932    -1.29123000    -0.01795112
 C                    -1.08530829    -0.80405625    -0.09006307
