    16
 geometry
 H                     0.00000000     2.35546346    -1.44923513
 C                     0.00000000     1.35119738    -1.00407561
 H                     0.00000000    -2.35546346    -1.44923513
 C                     0.00000000    -1.35119738    -1.00407561
 H                     2.07063526     1.29561404    -0.01402949
 C                     1.08591431     0.80435943    -0.08409502
 H                     2.07063526    -1.29561404    -0.01402949
 C                     1.08591431    -0.80435943    -0.08409502
 H                     0.00000000    -1.46362792     1.94849573
 C                     0.00000000    -0.78182753     1.08207305
 H                     0.00000000     1.46362792     1.94849573
 C                     0.00000000     0.78182753     1.08207305
 H                    -2.07063526     1.29561404    -0.01402949
 C                    -1.08591431     0.80435943    -0.08409502
 H                    -2.07063526    -1.29561404    -0.01402949
 C                    -1.08591431    -0.80435943    -0.08409502
