    16
 geometry
 H                     0.00000000     2.35692145    -1.44841056
 C                     0.00000000     1.35645713    -0.99700684
 H                     0.00000000    -2.35692145    -1.44841056
 C                     0.00000000    -1.35645713    -0.99700684
 H                     2.06777564     1.29286617    -0.01290084
 C                     1.08117202     0.80549128    -0.08459770
 H                     2.06777564    -1.29286617    -0.01290084
 C                     1.08117202    -0.80549128    -0.08459770
 H                     0.00000000    -1.46562702     1.94288495
 C                     0.00000000    -0.78122027     1.07853856
 H                     0.00000000     1.46562702     1.94288495
 C                     0.00000000     0.78122027     1.07853856
 H                    -2.06777564     1.29286617    -0.01290084
 C                    -1.08117202     0.80549128    -0.08459770
 H                    -2.06777564    -1.29286617    -0.01290084
 C                    -1.08117202    -0.80549128    -0.08459770
