    16
 geometry
 H                     0.00000000     2.38271375    -1.39909953
 C                     0.00000000     1.35330075    -1.01189136
 H                     0.00000000    -2.38271375    -1.39909953
 C                     0.00000000    -1.35330075    -1.01189136
 H                     2.07283821     1.28650092    -0.01778142
 C                     1.08612506     0.79995288    -0.09197481
 H                     2.07283821    -1.28650092    -0.01778142
 C                     1.08612506    -0.79995288    -0.09197481
 H                     0.00000000    -1.47357742     1.93490443
 C                     0.00000000    -0.78183158     1.07660795
 H                     0.00000000     1.47357742     1.93490443
 C                     0.00000000     0.78183158     1.07660795
 H                    -2.07283821     1.28650092    -0.01778142
 C                    -1.08612506     0.79995288    -0.09197481
 H                    -2.07283821    -1.28650092    -0.01778142
 C                    -1.08612506    -0.79995288    -0.09197481
