    16
 geometry
 H                     0.00000000     2.40243134    -1.35480652
 C                     0.00000000     1.35485306    -1.01716161
 H                     0.00000000    -2.40243134    -1.35480652
 C                     0.00000000    -1.35485306    -1.01716161
 H                     2.07324358     1.28565134    -0.02464472
 C                     1.08678349     0.79819662    -0.09843819
 H                     2.07324358    -1.28565134    -0.02464472
 C                     1.08678349    -0.79819662    -0.09843819
 H                     0.00000000    -1.47394736     1.92876687
 C                     0.00000000    -0.78223560     1.07037610
 H                     0.00000000     1.47394736     1.92876687
 C                     0.00000000     0.78223560     1.07037610
 H                    -2.07324358     1.28565134    -0.02464472
 C                    -1.08678349     0.79819662    -0.09843819
 H                    -2.07324358    -1.28565134    -0.02464472
 C                    -1.08678349    -0.79819662    -0.09843819
