    16
 geometry
 H                     2.06864821    -1.27147467     0.01581663
 C                     1.07451732    -0.80868072    -0.05915299
 H                     2.06864821     1.27147467     0.01581663
 C                     1.07451732     0.80868072    -0.05915299
 H                     0.00000000    -1.70400962    -2.00290006
 C                     0.00000000    -1.33551094    -0.97356831
 H                     0.00000000     1.70400962    -2.00290006
 C                     0.00000000     1.33551094    -0.97356831
 H                     0.00000000    -1.47509031     1.94784918
 C                     0.00000000    -0.77669288     1.09819133
 H                     0.00000000     1.47509031     1.94784918
 C                     0.00000000     0.77669288     1.09819133
 H                    -2.06864821    -1.27147467     0.01581663
 C                    -1.07451732    -0.80868072    -0.05915299
 H                    -2.06864821     1.27147467     0.01581663
 C                    -1.07451732     0.80868072    -0.05915299
