    16
 geometry
 H                     2.06545971    -1.28306246     0.02260072
 C                     1.07487889    -0.80705662    -0.05065070
 H                     2.06545971     1.28306246     0.02260072
 C                     1.07487889     0.80705662    -0.05065070
 H                     0.00000000    -1.50212115    -2.05991550
 C                     0.00000000    -1.33061428    -0.97563142
 H                     0.00000000     1.50212115    -2.05991550
 C                     0.00000000     1.33061428    -0.97563142
 H                     0.00000000    -1.45922926     1.96864044
 C                     0.00000000    -0.77728065     1.10590586
 H                     0.00000000     1.45922926     1.96864044
 C                     0.00000000     0.77728065     1.10590586
 H                    -2.06545971    -1.28306246     0.02260072
 C                    -1.07487889    -0.80705662    -0.05065070
 H                    -2.06545971     1.28306246     0.02260072
 C                    -1.07487889     0.80705662    -0.05065070
