    16
 geometry
 H                     2.04783388    -1.34080939     0.00898591
 C                     1.08305905    -0.81534870    -0.05561676
 H                     2.04783388     1.34080939     0.00898591
 C                     1.08305905     0.81534870    -0.05561676
 H                     0.00000000    -1.73679720    -1.99524479
 C                     0.00000000    -1.30630349    -0.99105626
 H                     0.00000000     1.73679720    -1.99524479
 C                     0.00000000     1.30630349    -0.99105626
 H                     0.00000000    -1.43179852     1.97427827
 C                     0.00000000    -0.78073406     1.08818389
 H                     0.00000000     1.43179852     1.97427827
 C                     0.00000000     0.78073406     1.08818389
 H                    -2.04783388    -1.34080939     0.00898591
 C                    -1.08305905    -0.81534870    -0.05561676
 H                    -2.04783388     1.34080939     0.00898591
 C                    -1.08305905     0.81534870    -0.05561676
