    16
 geometry
 H                     2.06113545    -1.28780100     0.01887712
 C                     1.07469353    -0.80521279    -0.05361182
 H                     2.06113545     1.28780100     0.01887712
 C                     1.07469353     0.80521279    -0.05361182
 H                     0.00000000    -1.54357255    -2.04785946
 C                     0.00000000    -1.33296396    -0.97250062
 H                     0.00000000     1.54357255    -2.04785946
 C                     0.00000000     1.33296396    -0.97250062
 H                     0.00000000    -1.46344368     1.96663616
 C                     0.00000000    -0.77946261     1.10609276
 H                     0.00000000     1.46344368     1.96663616
 C                     0.00000000     0.77946261     1.10609276
 H                    -2.06113545    -1.28780100     0.01887712
 C                    -1.07469353    -0.80521279    -0.05361182
 H                    -2.06113545     1.28780100     0.01887712
 C                    -1.07469353     0.80521279    -0.05361182
