    16
 geometry
 H                     2.07084690    -1.28111762     0.01916699
 C                     1.07579943    -0.81106758    -0.05730585
 H                     2.07084690     1.28111762     0.01916699
 C                     1.07579943     0.81106758    -0.05730585
 H                     0.00000000    -1.67496931    -2.01869853
 C                     0.00000000    -1.33443554    -0.97566185
 H                     0.00000000     1.67496931    -2.01869853
 C                     0.00000000     1.33443554    -0.97566185
 H                     0.00000000    -1.47681682     1.94989676
 C                     0.00000000    -0.77394286     1.10364078
 H                     0.00000000     1.47681682     1.94989676
 C                     0.00000000     0.77394286     1.10364078
 H                    -2.07084690    -1.28111762     0.01916699
 C                    -1.07579943    -0.81106758    -0.05730585
 H                    -2.07084690     1.28111762     0.01916699
 C                    -1.07579943     0.81106758    -0.05730585
