    16
 geometry
 H                     2.06886256    -1.28282448     0.00043621
 C                     1.08053432    -0.80465725    -0.06459313
 H                     2.06886256     1.28282448     0.00043621
 C                     1.08053432     0.80465725    -0.06459313
 H                     0.00000000    -1.75282420    -1.98609881
 C                     0.00000000    -1.33464937    -0.97559242
 H                     0.00000000     1.75282420    -1.98609881
 C                     0.00000000     1.33464937    -0.97559242
 H                     0.00000000    -1.44154905     1.97449256
 C                     0.00000000    -0.77679245     1.09841192
 H                     0.00000000     1.44154905     1.97449256
 C                     0.00000000     0.77679245     1.09841192
 H                    -2.06886256    -1.28282448     0.00043621
 C                    -1.08053432    -0.80465725    -0.06459313
 H                    -2.06886256     1.28282448     0.00043621
 C                    -1.08053432     0.80465725    -0.06459313
