16
(0.781, 1.408)
  H                     1.408     1.408     1.408
  H                    -1.408    -1.408     1.408
  H                    -1.408     1.408    -1.408
  H                     1.408    -1.408    -1.408
  H                    -1.408    -1.408    -1.408
  H                     1.408     1.408    -1.408
  H                     1.408    -1.408     1.408
  H                    -1.408     1.408     1.408
  C                     0.781     0.781     0.781
  C                    -0.781    -0.781     0.781
  C                    -0.781     0.781    -0.781
  C                     0.781    -0.781    -0.781
  C                    -0.781    -0.781    -0.781
  C                     0.781     0.781    -0.781
  C                     0.781    -0.781     0.781
  C                    -0.781     0.781     0.781
>
16
(0.781, 1.409)
  H                     1.409     1.409     1.409
  H                    -1.409    -1.409     1.409
  H                    -1.409     1.409    -1.409
  H                     1.409    -1.409    -1.409
  H                    -1.409    -1.409    -1.409
  H                     1.409     1.409    -1.409
  H                     1.409    -1.409     1.409
  H                    -1.409     1.409     1.409
  C                     0.781     0.781     0.781
  C                    -0.781    -0.781     0.781
  C                    -0.781     0.781    -0.781
  C                     0.781    -0.781    -0.781
  C                    -0.781    -0.781    -0.781
  C                     0.781     0.781    -0.781
  C                     0.781    -0.781     0.781
  C                    -0.781     0.781     0.781
>
16
(0.781, 1.410)
  H                     1.410     1.410     1.410
  H                    -1.410    -1.410     1.410
  H                    -1.410     1.410    -1.410
  H                     1.410    -1.410    -1.410
  H                    -1.410    -1.410    -1.410
  H                     1.410     1.410    -1.410
  H                     1.410    -1.410     1.410
  H                    -1.410     1.410     1.410
  C                     0.781     0.781     0.781
  C                    -0.781    -0.781     0.781
  C                    -0.781     0.781    -0.781
  C                     0.781    -0.781    -0.781
  C                    -0.781    -0.781    -0.781
  C                     0.781     0.781    -0.781
  C                     0.781    -0.781     0.781
  C                    -0.781     0.781     0.781
>
16
(0.782, 1.408)
  H                     1.408     1.408     1.408
  H                    -1.408    -1.408     1.408
  H                    -1.408     1.408    -1.408
  H                     1.408    -1.408    -1.408
  H                    -1.408    -1.408    -1.408
  H                     1.408     1.408    -1.408
  H                     1.408    -1.408     1.408
  H                    -1.408     1.408     1.408
  C                     0.782     0.782     0.782
  C                    -0.782    -0.782     0.782
  C                    -0.782     0.782    -0.782
  C                     0.782    -0.782    -0.782
  C                    -0.782    -0.782    -0.782
  C                     0.782     0.782    -0.782
  C                     0.782    -0.782     0.782
  C                    -0.782     0.782     0.782
>
16
(0.782, 1.409)
  H                     1.409     1.409     1.409
  H                    -1.409    -1.409     1.409
  H                    -1.409     1.409    -1.409
  H                     1.409    -1.409    -1.409
  H                    -1.409    -1.409    -1.409
  H                     1.409     1.409    -1.409
  H                     1.409    -1.409     1.409
  H                    -1.409     1.409     1.409
  C                     0.782     0.782     0.782
  C                    -0.782    -0.782     0.782
  C                    -0.782     0.782    -0.782
  C                     0.782    -0.782    -0.782
  C                    -0.782    -0.782    -0.782
  C                     0.782     0.782    -0.782
  C                     0.782    -0.782     0.782
  C                    -0.782     0.782     0.782
>
16
(0.782, 1.410)
  H                     1.410     1.410     1.410
  H                    -1.410    -1.410     1.410
  H                    -1.410     1.410    -1.410
  H                     1.410    -1.410    -1.410
  H                    -1.410    -1.410    -1.410
  H                     1.410     1.410    -1.410
  H                     1.410    -1.410     1.410
  H                    -1.410     1.410     1.410
  C                     0.782     0.782     0.782
  C                    -0.782    -0.782     0.782
  C                    -0.782     0.782    -0.782
  C                     0.782    -0.782    -0.782
  C                    -0.782    -0.782    -0.782
  C                     0.782     0.782    -0.782
  C                     0.782    -0.782     0.782
  C                    -0.782     0.782     0.782
>
16
(0.783, 1.408)
  H                     1.408     1.408     1.408
  H                    -1.408    -1.408     1.408
  H                    -1.408     1.408    -1.408
  H                     1.408    -1.408    -1.408
  H                    -1.408    -1.408    -1.408
  H                     1.408     1.408    -1.408
  H                     1.408    -1.408     1.408
  H                    -1.408     1.408     1.408
  C                     0.783     0.783     0.783
  C                    -0.783    -0.783     0.783
  C                    -0.783     0.783    -0.783
  C                     0.783    -0.783    -0.783
  C                    -0.783    -0.783    -0.783
  C                     0.783     0.783    -0.783
  C                     0.783    -0.783     0.783
  C                    -0.783     0.783     0.783
>
16
(0.783, 1.409)
  H                     1.409     1.409     1.409
  H                    -1.409    -1.409     1.409
  H                    -1.409     1.409    -1.409
  H                     1.409    -1.409    -1.409
  H                    -1.409    -1.409    -1.409
  H                     1.409     1.409    -1.409
  H                     1.409    -1.409     1.409
  H                    -1.409     1.409     1.409
  C                     0.783     0.783     0.783
  C                    -0.783    -0.783     0.783
  C                    -0.783     0.783    -0.783
  C                     0.783    -0.783    -0.783
  C                    -0.783    -0.783    -0.783
  C                     0.783     0.783    -0.783
  C                     0.783    -0.783     0.783
  C                    -0.783     0.783     0.783
>
16
(0.783, 1.410)
  H                     1.410     1.410     1.410
  H                    -1.410    -1.410     1.410
  H                    -1.410     1.410    -1.410
  H                     1.410    -1.410    -1.410
  H                    -1.410    -1.410    -1.410
  H                     1.410     1.410    -1.410
  H                     1.410    -1.410     1.410
  H                    -1.410     1.410     1.410
  C                     0.783     0.783     0.783
  C                    -0.783    -0.783     0.783
  C                    -0.783     0.783    -0.783
  C                     0.783    -0.783    -0.783
  C                    -0.783    -0.783    -0.783
  C                     0.783     0.783    -0.783
  C                     0.783    -0.783     0.783
  C                    -0.783     0.783     0.783

