    16
 geometry
 H                     1.40904610     1.40904610     1.40904610
 H                    -1.40904610    -1.40904610     1.40904610
 H                    -1.40904610     1.40904610    -1.40904610
 H                     1.40904610    -1.40904610    -1.40904610
 H                     1.40904610     1.40904610    -1.40904610
 H                    -1.40904610    -1.40904610    -1.40904610
 H                     1.40904610    -1.40904610     1.40904610
 H                    -1.40904610     1.40904610     1.40904610
 C                     0.78187341     0.78187341     0.78187341
 C                    -0.78187341    -0.78187341     0.78187341
 C                    -0.78187341     0.78187341    -0.78187341
 C                     0.78187341    -0.78187341    -0.78187341
 C                     0.78187341     0.78187341    -0.78187341
 C                    -0.78187341    -0.78187341    -0.78187341
 C                     0.78187341    -0.78187341     0.78187341
 C                    -0.78187341     0.78187341     0.78187341
