    16
 geometry
 H                     1.41000000     1.41000000     1.41000000
 H                    -1.41000000    -1.41000000     1.41000000
 H                    -1.41000000     1.41000000    -1.41000000
 H                     1.41000000    -1.41000000    -1.41000000
 H                     1.41000000     1.41000000    -1.41000000
 H                    -1.41000000    -1.41000000    -1.41000000
 H                     1.41000000    -1.41000000     1.41000000
 H                    -1.41000000     1.41000000     1.41000000
 C                     0.78370000     0.78370000     0.78370000
 C                    -0.78370000    -0.78370000     0.78370000
 C                    -0.78370000     0.78370000    -0.78370000
 C                     0.78370000    -0.78370000    -0.78370000
 C                     0.78370000     0.78370000    -0.78370000
 C                    -0.78370000    -0.78370000    -0.78370000
 C                     0.78370000    -0.78370000     0.78370000
 C                    -0.78370000     0.78370000     0.78370000
