    16
 geometry
 H                     1.40907454     1.40907454     1.40907454
 H                    -1.40907454    -1.40907454     1.40907454
 H                    -1.40907454     1.40907454    -1.40907454
 H                     1.40907454    -1.40907454    -1.40907454
 H                     1.40907454     1.40907454    -1.40907454
 H                    -1.40907454    -1.40907454    -1.40907454
 H                     1.40907454    -1.40907454     1.40907454
 H                    -1.40907454     1.40907454     1.40907454
 C                     0.78196462     0.78196462     0.78196462
 C                    -0.78196462    -0.78196462     0.78196462
 C                    -0.78196462     0.78196462    -0.78196462
 C                     0.78196462    -0.78196462    -0.78196462
 C                     0.78196462     0.78196462    -0.78196462
 C                    -0.78196462    -0.78196462    -0.78196462
 C                     0.78196462    -0.78196462     0.78196462
 C                    -0.78196462     0.78196462     0.78196462
