    16
 geometry
 H                     1.40699727     1.40699727     1.40699727
 H                    -1.40699727    -1.40699727     1.40699727
 H                    -1.40699727     1.40699727    -1.40699727
 H                     1.40699727    -1.40699727    -1.40699727
 H                     1.40699727     1.40699727    -1.40699727
 H                    -1.40699727    -1.40699727    -1.40699727
 H                     1.40699727    -1.40699727     1.40699727
 H                    -1.40699727     1.40699727     1.40699727
 C                     0.78115943     0.78115943     0.78115943
 C                    -0.78115943    -0.78115943     0.78115943
 C                    -0.78115943     0.78115943    -0.78115943
 C                     0.78115943    -0.78115943    -0.78115943
 C                     0.78115943     0.78115943    -0.78115943
 C                    -0.78115943    -0.78115943    -0.78115943
 C                     0.78115943    -0.78115943     0.78115943
 C                    -0.78115943     0.78115943     0.78115943
