    16
 geometry
 H                     2.06142873    -1.28922566     0.01724073
 C                     1.07169865    -0.81302788    -0.05681955
 H                     2.06142873     1.28922566     0.01724073
 C                     1.07169865     0.81302788    -0.05681955
 H                     0.00000000    -1.61779342    -2.03013700
 C                     0.00000000    -1.32664732    -0.97394945
 H                     0.00000000     1.61779342    -2.03013700
 C                     0.00000000     1.32664732    -0.97394945
 H                     0.00000000    -1.44793278     1.95832693
 C                     0.00000000    -0.77151927     1.09284839
 H                     0.00000000     1.44793278     1.95832693
 C                     0.00000000     0.77151927     1.09284839
 H                    -2.06142873    -1.28922566     0.01724073
 C                    -1.07169865    -0.81302788    -0.05681955
 H                    -2.06142873     1.28922566     0.01724073
 C                    -1.07169865     0.81302788    -0.05681955
