    16
 geometry
 H                     2.06143109    -1.28838536     0.01786571
 C                     1.07179886    -0.81271322    -0.05708525
 H                     2.06143109     1.28838536     0.01786571
 C                     1.07179886     0.81271322    -0.05708525
 H                     0.00000000    -1.62124455    -2.02816588
 C                     0.00000000    -1.32889589    -0.97375305
 H                     0.00000000     1.62124455    -2.02816588
 C                     0.00000000     1.32889589    -0.97375305
 H                     0.00000000    -1.44834344     1.95651773
 C                     0.00000000    -0.77205288     1.09177152
 H                     0.00000000     1.44834344     1.95651773
 C                     0.00000000     0.77205288     1.09177152
 H                    -2.06143109    -1.28838536     0.01786571
 C                    -1.07179886    -0.81271322    -0.05708525
 H                    -2.06143109     1.28838536     0.01786571
 C                    -1.07179886     0.81271322    -0.05708525
