    16
 geometry
 H                     2.04693057     1.26485860    -0.00807964
 C                     1.07168295     0.79424482    -0.08496193
 H                     2.04693057    -1.26485860    -0.00807964
 C                     1.07168295    -0.79424482    -0.08496193
 H                     0.00000000    -2.33412869    -1.41274578
 C                     0.00000000    -1.34576333    -0.97717848
 H                     0.00000000     2.33412869    -1.41274578
 C                     0.00000000     1.34576333    -0.97717848
 H                     0.00000000    -1.46341018     1.91189195
 C                     0.00000000    -0.77337816     1.07362317
 H                     0.00000000     1.46341018     1.91189195
 C                     0.00000000     0.77337816     1.07362317
 H                    -2.04693057     1.26485860    -0.00807964
 C                    -1.07168295     0.79424482    -0.08496193
 H                    -2.04693057    -1.26485860    -0.00807964
 C                    -1.07168295    -0.79424482    -0.08496193
