    16
 geometry
 H                     2.04709997     1.26569407    -0.00155507
 C                     1.07112974     0.79633188    -0.07638450
 H                     2.04709997    -1.26569407    -0.00155507
 C                     1.07112974    -0.79633188    -0.07638450
 H                     0.00000000    -2.30069291    -1.46627004
 C                     0.00000000    -1.34124615    -0.97124997
 H                     0.00000000     2.30069291    -1.46627004
 C                     0.00000000     1.34124615    -0.97124997
 H                     0.00000000    -1.46176738     1.92120107
 C                     0.00000000    -0.77336363     1.08170580
 H                     0.00000000     1.46176738     1.92120107
 C                     0.00000000     0.77336363     1.08170580
 H                    -2.04709997     1.26569407    -0.00155507
 C                    -1.07112974     0.79633188    -0.07638450
 H                    -2.04709997    -1.26569407    -0.00155507
 C                    -1.07112974    -0.79633188    -0.07638450
