    16
 geometry
 H                     2.04690669     1.26523866    -0.00707496
 C                     1.07161339     0.79509880    -0.08403302
 H                     2.04690669    -1.26523866    -0.00707496
 C                     1.07161339    -0.79509880    -0.08403302
 H                     0.00000000    -2.33279782    -1.41631660
 C                     0.00000000    -1.34592378    -0.97679330
 H                     0.00000000     2.33279782    -1.41631660
 C                     0.00000000     1.34592378    -0.97679330
 H                     0.00000000    -1.46451365     1.91109861
 C                     0.00000000    -0.77352160     1.07373495
 H                     0.00000000     1.46451365     1.91109861
 C                     0.00000000     0.77352160     1.07373495
 H                    -2.04690669     1.26523866    -0.00707496
 C                    -1.07161339     0.79509880    -0.08403302
 H                    -2.04690669    -1.26523866    -0.00707496
 C                    -1.07161339    -0.79509880    -0.08403302
