    16
 geometry
 H                     2.04668595     1.26682437    -0.00033635
 C                     1.07121833     0.79654218    -0.07627357
 H                     2.04668595    -1.26682437    -0.00033635
 C                     1.07121833    -0.79654218    -0.07627357
 H                     0.00000000    -2.29879928    -1.46906735
 C                     0.00000000    -1.34093548    -0.97119055
 H                     0.00000000     2.29879928    -1.46906735
 C                     0.00000000     1.34093548    -0.97119055
 H                     0.00000000    -1.46145538     1.92117747
 C                     0.00000000    -0.77287309     1.08180798
 H                     0.00000000     1.46145538     1.92117747
 C                     0.00000000     0.77287309     1.08180798
 H                    -2.04668595     1.26682437    -0.00033635
 C                    -1.07121833     0.79654218    -0.07627357
 H                    -2.04668595    -1.26682437    -0.00033635
 C                    -1.07121833    -0.79654218    -0.07627357
