    16
 geometry
 H                     1.40138970     1.40138970     1.40138970
 H                    -1.40138970    -1.40138970     1.40138970
 H                    -1.40138970     1.40138970    -1.40138970
 H                     1.40138970    -1.40138970    -1.40138970
 H                     1.40138970     1.40138970    -1.40138970
 H                    -1.40138970    -1.40138970    -1.40138970
 H                     1.40138970    -1.40138970     1.40138970
 H                    -1.40138970     1.40138970     1.40138970
 C                     0.77869825     0.77869825     0.77869825
 C                    -0.77869825    -0.77869825     0.77869825
 C                    -0.77869825     0.77869825    -0.77869825
 C                     0.77869825    -0.77869825    -0.77869825
 C                     0.77869825     0.77869825    -0.77869825
 C                    -0.77869825    -0.77869825    -0.77869825
 C                     0.77869825    -0.77869825     0.77869825
 C                    -0.77869825     0.77869825     0.77869825
