    16
 geometry
 H                     2.04420700    -1.27313331     0.01580912
 C                     1.06681980    -0.80375806    -0.05535014
 H                     2.04420700     1.27313331     0.01580912
 C                     1.06681980     0.80375806    -0.05535014
 H                     0.00000000    -1.48529644    -2.04260374
 C                     0.00000000    -1.31611968    -0.97330317
 H                     0.00000000     1.48529644    -2.04260374
 C                     0.00000000     1.31611968    -0.97330317
 H                     0.00000000    -1.44580978     1.94562062
 C                     0.00000000    -0.77196364     1.09539180
 H                     0.00000000     1.44580978     1.94562062
 C                     0.00000000     0.77196364     1.09539180
 H                    -2.04420700    -1.27313331     0.01580912
 C                    -1.06681980    -0.80375806    -0.05535014
 H                    -2.04420700     1.27313331     0.01580912
 C                    -1.06681980     0.80375806    -0.05535014
