    16
 geometry
 H                     2.04528412    -1.27348507     0.01652463
 C                     1.06705170    -0.80618685    -0.05537756
 H                     2.04528412     1.27348507     0.01652463
 C                     1.06705170     0.80618685    -0.05537756
 H                     0.00000000    -1.49539973    -2.04308810
 C                     0.00000000    -1.31424556    -0.97485080
 H                     0.00000000     1.49539973    -2.04308810
 C                     0.00000000     1.31424556    -0.97485080
 H                     0.00000000    -1.44526321     1.94587124
 C                     0.00000000    -0.77106234     1.09524781
 H                     0.00000000     1.44526321     1.94587124
 C                     0.00000000     0.77106234     1.09524781
 H                    -2.04528412    -1.27348507     0.01652463
 C                    -1.06705170    -0.80618685    -0.05537756
 H                    -2.04528412     1.27348507     0.01652463
 C                    -1.06705170     0.80618685    -0.05537756
