    16
 geometry
 H                     2.04627727    -1.27184983     0.01425383
 C                     1.06715885    -0.80539749    -0.05678017
 H                     2.04627727     1.27184983     0.01425383
 C                     1.06715885     0.80539749    -0.05678017
 H                     0.00000000    -1.52900738    -2.03409814
 C                     0.00000000    -1.31680344    -0.97312739
 H                     0.00000000     1.52900738    -2.03409814
 C                     0.00000000     1.31680344    -0.97312739
 H                     0.00000000    -1.44730653     1.94378385
 C                     0.00000000    -0.77177613     1.09451783
 H                     0.00000000     1.44730653     1.94378385
 C                     0.00000000     0.77177613     1.09451783
 H                    -2.04627727    -1.27184983     0.01425383
 C                    -1.06715885    -0.80539749    -0.05678017
 H                    -2.04627727     1.27184983     0.01425383
 C                    -1.06715885     0.80539749    -0.05678017
