    16
 geometry
 H                     2.04693185    -1.27001517     0.01439790
 C                     1.06694587    -0.80540108    -0.05661583
 H                     2.04693185     1.27001517     0.01439790
 C                     1.06694587     0.80540108    -0.05661583
 H                     0.00000000    -1.52272920    -2.03582778
 C                     0.00000000    -1.31692343    -0.97347230
 H                     0.00000000     1.52272920    -2.03582778
 C                     0.00000000     1.31692343    -0.97347230
 H                     0.00000000    -1.44569786     1.94508165
 C                     0.00000000    -0.77156226     1.09467776
 H                     0.00000000     1.44569786     1.94508165
 C                     0.00000000     0.77156226     1.09467776
 H                    -2.04693185    -1.27001517     0.01439790
 C                    -1.06694587    -0.80540108    -0.05661583
 H                    -2.04693185     1.27001517     0.01439790
 C                    -1.06694587     0.80540108    -0.05661583
