    16
 geometry
 H                     2.04592467    -1.27250530     0.01440655
 C                     1.06719732    -0.80539605    -0.05671004
 H                     2.04592467     1.27250530     0.01440655
 C                     1.06719732     0.80539605    -0.05671004
 H                     0.00000000    -1.52648170    -2.03483303
 C                     0.00000000    -1.31664326    -0.97321859
 H                     0.00000000     1.52648170    -2.03483303
 C                     0.00000000     1.31664326    -0.97321859
 H                     0.00000000    -1.44747020     1.94363256
 C                     0.00000000    -0.77177772     1.09450033
 H                     0.00000000     1.44747020     1.94363256
 C                     0.00000000     0.77177772     1.09450033
 H                    -2.04592467    -1.27250530     0.01440655
 C                    -1.06719732    -0.80539605    -0.05671004
 H                    -2.04592467     1.27250530     0.01440655
 C                    -1.06719732     0.80539605    -0.05671004
