    16
 geometry
 H                     2.04492827    -1.27400448     0.01662808
 C                     1.06719162    -0.80620534    -0.05529370
 H                     2.04492827     1.27400448     0.01662808
 C                     1.06719162     0.80620534    -0.05529370
 H                     0.00000000    -1.49183886    -2.04230263
 C                     0.00000000    -1.31433955    -0.97477393
 H                     0.00000000     1.49183886    -2.04230263
 C                     0.00000000     1.31433955    -0.97477393
 H                     0.00000000    -1.44512749     1.94524021
 C                     0.00000000    -0.77120113     1.09519104
 H                     0.00000000     1.44512749     1.94524021
 C                     0.00000000     0.77120113     1.09519104
 H                    -2.04492827    -1.27400448     0.01662808
 C                    -1.06719162    -0.80620534    -0.05529370
 H                    -2.04492827     1.27400448     0.01662808
 C                    -1.06719162     0.80620534    -0.05529370
