    16
 geometry
 H                     2.04591557    -1.27180861     0.01562239
 C                     1.06708974    -0.80585236    -0.05589020
 H                     2.04591557     1.27180861     0.01562239
 C                     1.06708974     0.80585236    -0.05589020
 H                     0.00000000    -1.50561436    -2.03941690
 C                     0.00000000    -1.31545189    -0.97425915
 H                     0.00000000     1.50561436    -2.03941690
 C                     0.00000000     1.31545189    -0.97425915
 H                     0.00000000    -1.44501897     1.94526113
 C                     0.00000000    -0.77126550     1.09497402
 H                     0.00000000     1.44501897     1.94526113
 C                     0.00000000     0.77126550     1.09497402
 H                    -2.04591557    -1.27180861     0.01562239
 C                    -1.06708974    -0.80585236    -0.05589020
 H                    -2.04591557     1.27180861     0.01562239
 C                    -1.06708974     0.80585236    -0.05589020
