16
Coordinates from ORCA-job /home/vladimir/git/private/ORCA/C8H8/cubane/optimize/DFT/B3LYP/QZVP/./cubane
  H   -1.41127140077349      1.41127141619385      1.41127140751100
  C   -0.78414515537824      0.78414515303810      0.78414514338293
  H   -1.41127140408218     -1.41127140573706      1.41127138784165
  C   -0.78414514243143     -0.78414514155667      0.78414514005465
  H   1.41127136455873      1.41127137833390      1.41127136985102
  C   0.78414512998558      0.78414512978603      0.78414512508095
  H   -1.41127140738015      1.41127140727266     -1.41127139014037
  C   -0.78414514411635      0.78414515838021     -0.78414513573926
  H   1.41127139912161     -1.41127141141789      1.41127138290262
  C   0.78414514983015     -0.78414515639240      0.78414513839886
  H   -1.41127138312212     -1.41127141188171     -1.41127136878628
  C   -0.78414513516603     -0.78414513818898     -0.78414512519556
  H   1.41127142157371      1.41127141383956     -1.41127139987510
  C   0.78414515499022      0.78414515509864     -0.78414515787106
  H   1.41127140060312     -1.41127140701338     -1.41127138990366
  C   0.78414515178686     -0.78414513975487     -0.78414512751237
