    16
 geometry
 H                     0.00000000     2.36960131    -1.41381465
 C                     0.00000000     1.35501352    -0.99669130
 H                     0.00000000    -2.36960131    -1.41381465
 C                     0.00000000    -1.35501352    -0.99669130
 H                     2.06779070     1.28338229    -0.00653112
 C                     1.08153067     0.79972281    -0.08182020
 H                     2.06779070    -1.28338229    -0.00653112
 C                     1.08153067    -0.79972281    -0.08182020
 H                     0.00000000    -1.46921105     1.93953235
 C                     0.00000000    -0.77968371     1.08183018
 H                     0.00000000     1.46921105     1.93953235
 C                     0.00000000     0.77968371     1.08183018
 H                    -2.06779070     1.28338229    -0.00653112
 C                    -1.08153067     0.79972281    -0.08182020
 H                    -2.06779070    -1.28338229    -0.00653112
 C                    -1.08153067    -0.79972281    -0.08182020
