    16
 geometry
 H                     0.00000000     2.35975410    -1.43174491
 C                     0.00000000     1.35361119    -0.99528084
 H                     0.00000000    -2.35975410    -1.43174491
 C                     0.00000000    -1.35361119    -0.99528084
 H                     2.06764061     1.28283203    -0.00284813
 C                     1.08129134     0.80023067    -0.07935566
 H                     2.06764061    -1.28283203    -0.00284813
 C                     1.08129134    -0.80023067    -0.07935566
 H                     0.00000000    -1.47004282     1.94117353
 C                     0.00000000    -0.77970203     1.08441372
 H                     0.00000000     1.47004282     1.94117353
 C                     0.00000000     0.77970203     1.08441372
 H                    -2.06764061     1.28283203    -0.00284813
 C                    -1.08129134     0.80023067    -0.07935566
 H                    -2.06764061    -1.28283203    -0.00284813
 C                    -1.08129134    -0.80023067    -0.07935566
