    16
 geometry
 H                     0.00000000     2.36478432    -1.42301224
 C                     0.00000000     1.35423819    -0.99675909
 H                     0.00000000    -2.36478432    -1.42301224
 C                     0.00000000    -1.35423819    -0.99675909
 H                     2.06782041     1.28206573    -0.00320498
 C                     1.08129545     0.80001410    -0.08101259
 H                     2.06782041    -1.28206573    -0.00320498
 C                     1.08129545    -0.80001410    -0.08101259
 H                     0.00000000    -1.46970267     1.93970165
 C                     0.00000000    -0.77977583     1.08265875
 H                     0.00000000     1.46970267     1.93970165
 C                     0.00000000     0.77977583     1.08265875
 H                    -2.06782041     1.28206573    -0.00320498
 C                    -1.08129545     0.80001410    -0.08101259
 H                    -2.06782041    -1.28206573    -0.00320498
 C                    -1.08129545    -0.80001410    -0.08101259
