    16
 geometry
 H                     2.06638324     1.27556924    -0.01483950
 C                     1.07890980     0.79698820    -0.09121108
 H                     2.06638324    -1.27556924    -0.01483950
 C                     1.07890980    -0.79698820    -0.09121108
 H                     0.00000000    -2.38154345    -1.37995552
 C                     0.00000000    -1.35499242    -0.99656385
 H                     0.00000000     2.38154345    -1.37995552
 C                     0.00000000     1.35499242    -0.99656385
 H                     0.00000000    -1.47480429     1.92529715
 C                     0.00000000    -0.77912494     1.07283110
 H                     0.00000000     1.47480429     1.92529715
 C                     0.00000000     0.77912494     1.07283110
 H                    -2.06638324     1.27556924    -0.01483950
 C                    -1.07890980     0.79698820    -0.09121108
 H                    -2.06638324    -1.27556924    -0.01483950
 C                    -1.07890980    -0.79698820    -0.09121108
