    16
 geometry
 H                     2.06637159     1.27552029    -0.01496366
 C                     1.07887113     0.79697927    -0.09121349
 H                     2.06637159    -1.27552029    -0.01496366
 C                     1.07887113    -0.79697927    -0.09121349
 H                     0.00000000    -2.38177554    -1.37954424
 C                     0.00000000    -1.35507813    -0.99657568
 H                     0.00000000     2.38177554    -1.37954424
 C                     0.00000000     1.35507813    -0.99657568
 H                     0.00000000    -1.47495900     1.92516356
 C                     0.00000000    -0.77913362     1.07281837
 H                     0.00000000     1.47495900     1.92516356
 C                     0.00000000     0.77913362     1.07281837
 H                    -2.06637159     1.27552029    -0.01496366
 C                    -1.07887113     0.79697927    -0.09121349
 H                    -2.06637159    -1.27552029    -0.01496366
 C                    -1.07887113    -0.79697927    -0.09121349
