    16
 geometry
 H                     2.06635048     1.27536857    -0.01130306
 C                     1.07857214     0.79803548    -0.08842040
 H                     2.06635048    -1.27536857    -0.01130306
 C                     1.07857214    -0.79803548    -0.08842040
 H                     0.00000000    -2.37170728    -1.39829201
 C                     0.00000000    -1.35330897    -0.99460517
 H                     0.00000000     2.37170728    -1.39829201
 C                     0.00000000     1.35330897    -0.99460517
 H                     0.00000000    -1.47732972     1.92602352
 C                     0.00000000    -0.77884253     1.07582829
 H                     0.00000000     1.47732972     1.92602352
 C                     0.00000000     0.77884253     1.07582829
 H                    -2.06635048     1.27536857    -0.01130306
 C                    -1.07857214     0.79803548    -0.08842040
 H                    -2.06635048    -1.27536857    -0.01130306
 C                    -1.07857214    -0.79803548    -0.08842040
