    16
 geometry
 H                     1.42890000     1.42890000     1.42890000
 H                    -1.42890000    -1.42890000     1.42890000
 H                    -1.42890000     1.42890000    -1.42890000
 H                     1.42890000    -1.42890000    -1.42890000
 H                    -1.42890000    -1.42890000    -1.42890000
 H                     1.42890000     1.42890000    -1.42890000
 H                     1.42890000    -1.42890000     1.42890000
 H                    -1.42890000     1.42890000     1.42890000
 C                     0.79210000     0.79210000     0.79210000
 C                    -0.79210000    -0.79210000     0.79210000
 C                    -0.79210000     0.79210000    -0.79210000
 C                     0.79210000    -0.79210000    -0.79210000
 C                    -0.79210000    -0.79210000    -0.79210000
 C                     0.79210000     0.79210000    -0.79210000
 C                     0.79210000    -0.79210000     0.79210000
 C                    -0.79210000     0.79210000     0.79210000
