    16
 geometry
 H                     0.00000000     2.38874018    -1.38386854
 C                     0.00000000     1.36263736    -0.99625896
 H                     0.00000000    -2.38874018    -1.38386854
 C                     0.00000000    -1.36263736    -0.99625896
 H                     2.06904833     1.27264124    -0.01069207
 C                     1.07750267     0.80084730    -0.08561355
 H                     2.06904833    -1.27264124    -0.01069207
 C                     1.07750267    -0.80084730    -0.08561355
 H                     0.00000000    -1.48272741     1.92653666
 C                     0.00000000    -0.77947137     1.08035601
 H                     0.00000000     1.48272741     1.92653666
 C                     0.00000000     0.77947137     1.08035601
 H                    -2.06904833     1.27264124    -0.01069207
 C                    -1.07750267     0.80084730    -0.08561355
 H                    -2.06904833    -1.27264124    -0.01069207
 C                    -1.07750267    -0.80084730    -0.08561355
