    16
 geometry
 H                     0.00000000     2.39078413    -1.39153393
 C                     0.00000000     1.36969799    -0.99152638
 H                     0.00000000    -2.39078413    -1.39153393
 C                     0.00000000    -1.36969799    -0.99152638
 H                     2.07013293     1.27234505    -0.00998462
 C                     1.07690756     0.80369533    -0.08529701
 H                     2.07013293    -1.27234505    -0.00998462
 C                     1.07690756    -0.80369533    -0.08529701
 H                     0.00000000    -1.48363950     1.92701454
 C                     0.00000000    -0.77990155     1.08076297
 H                     0.00000000     1.48363950     1.92701454
 C                     0.00000000     0.77990155     1.08076297
 H                    -2.07013293     1.27234505    -0.00998462
 C                    -1.07690756     0.80369533    -0.08529701
 H                    -2.07013293    -1.27234505    -0.00998462
 C                    -1.07690756    -0.80369533    -0.08529701
