    16
 geometry
 H                     0.00000000     2.32863485    -1.46923838
 C                     0.00000000     1.33991976    -0.99598104
 H                     0.00000000    -2.32863485    -1.46923838
 C                     0.00000000    -1.33991976    -0.99598104
 H                     2.06588479     1.28574566     0.00187874
 C                     1.08104887     0.79986866    -0.07256709
 H                     2.06588479    -1.28574566     0.00187874
 C                     1.08104887    -0.79986866    -0.07256709
 H                     0.00000000    -1.46768973     1.94926418
 C                     0.00000000    -0.77886975     1.09148586
 H                     0.00000000     1.46768973     1.94926418
 C                     0.00000000     0.77886975     1.09148586
 H                    -2.06588479     1.28574566     0.00187874
 C                    -1.08104887     0.79986866    -0.07256709
 H                    -2.06588479    -1.28574566     0.00187874
 C                    -1.08104887    -0.79986866    -0.07256709
