    16
 geometry
 H                     0.00000000     2.33010576    -1.46809388
 C                     0.00000000     1.34104049    -0.99562086
 H                     0.00000000    -2.33010576    -1.46809388
 C                     0.00000000    -1.34104049    -0.99562086
 H                     2.06600718     1.28532704     0.00178540
 C                     1.08088758     0.80005295    -0.07281752
 H                     2.06600718    -1.28532704     0.00178540
 C                     1.08088758    -0.80005295    -0.07281752
 H                     0.00000000    -1.46824220     1.94864807
 C                     0.00000000    -0.77889091     1.09128484
 H                     0.00000000     1.46824220     1.94864807
 C                     0.00000000     0.77889091     1.09128484
 H                    -2.06600718     1.28532704     0.00178540
 C                    -1.08088758     0.80005295    -0.07281752
 H                    -2.06600718    -1.28532704     0.00178540
 C                    -1.08088758    -0.80005295    -0.07281752
