    16
 geometry
 H                     0.00000000     2.38865570    -1.40116222
 C                     0.00000000     1.37460289    -0.98555656
 H                     0.00000000    -2.38865570    -1.40116222
 C                     0.00000000    -1.37460289    -0.98555656
 H                     2.06646094     1.27748999    -0.00926528
 C                     1.07584483     0.80449927    -0.08575419
 H                     2.06646094    -1.27748999    -0.00926528
 C                     1.07584483    -0.80449927    -0.08575419
 H                     0.00000000    -1.47119818     1.93334672
 C                     0.00000000    -0.77957071     1.07756493
 H                     0.00000000     1.47119818     1.93334672
 C                     0.00000000     0.77957071     1.07756493
 H                    -2.06646094     1.27748999    -0.00926528
 C                    -1.07584483     0.80449927    -0.08575419
 H                    -2.06646094    -1.27748999    -0.00926528
 C                    -1.07584483    -0.80449927    -0.08575419
