    16
 geometry
 H                     0.00000000     2.34297281    -1.45298098
 C                     0.00000000     1.34696270    -0.99522437
 H                     0.00000000    -2.34297281    -1.45298098
 C                     0.00000000    -1.34696270    -0.99522437
 H                     2.06673969     1.28249840     0.00002190
 C                     1.08025053     0.80025341    -0.07567450
 H                     2.06673969    -1.28249840     0.00002190
 C                     1.08025053    -0.80025341    -0.07567450
 H                     0.00000000    -1.47072973     1.94451899
 C                     0.00000000    -0.77890956     1.08914550
 H                     0.00000000     1.47072973     1.94451899
 C                     0.00000000     0.77890956     1.08914550
 H                    -2.06673969     1.28249840     0.00002190
 C                    -1.08025053     0.80025341    -0.07567450
 H                    -2.06673969    -1.28249840     0.00002190
 C                    -1.08025053    -0.80025341    -0.07567450
