    16
 geometry
 H                     0.00000000     2.29918930    -1.39662228
 C                     0.00000000     1.28849541    -0.96910210
 H                     0.00000000    -2.29918930    -1.39662228
 C                     0.00000000    -1.28849541    -0.96910210
 H                     2.03238677     1.26979079    -0.00610653
 C                     1.04448330     0.77831170    -0.07471230
 H                     2.03238677    -1.26979079    -0.00610653
 C                     1.04448330    -0.77831170    -0.07471230
 H                     0.00000000    -1.45664995     1.90915171
 C                     0.00000000    -0.76217217     1.05236427
 H                     0.00000000     1.45664995     1.90915171
 C                     0.00000000     0.76217217     1.05236427
 H                    -2.03238677     1.26979079    -0.00610653
 C                    -1.04448330     0.77831170    -0.07471230
 H                    -2.03238677    -1.26979079    -0.00610653
 C                    -1.04448330    -0.77831170    -0.07471230
