    16
 geometry
 H                     0.00000000     2.32800971    -1.39336652
 C                     0.00000000     1.31439055    -0.97639531
 H                     0.00000000    -2.32800971    -1.39336652
 C                     0.00000000    -1.31439055    -0.97639531
 H                     2.04366062     1.27411336    -0.00681045
 C                     1.05500016     0.78709272    -0.07932773
 H                     2.04366062    -1.27411336    -0.00681045
 C                     1.05500016    -0.78709272    -0.07932773
 H                     0.00000000    -1.46181321     1.91634489
 C                     0.00000000    -0.76945485     1.05984724
 H                     0.00000000     1.46181321     1.91634489
 C                     0.00000000     0.76945485     1.05984724
 H                    -2.04366062     1.27411336    -0.00681045
 C                    -1.05500016     0.78709272    -0.07932773
 H                    -2.04366062    -1.27411336    -0.00681045
 C                    -1.05500016    -0.78709272    -0.07932773
