    16
 geometry
 H                     2.07045488    -1.28858437     0.02692239
 C                     1.07976532    -0.81019388    -0.05109156
 H                     2.07045488     1.28858437     0.02692239
 C                     1.07976532     0.81019388    -0.05109156
 H                     0.00000000    -1.61621519    -2.03739978
 C                     0.00000000    -1.34188382    -0.97348835
 H                     0.00000000     1.61621519    -2.03739978
 C                     0.00000000     1.34188382    -0.97348835
 H                     0.00000000    -1.47629259     1.95945724
 C                     0.00000000    -0.77788111     1.10996481
 H                     0.00000000     1.47629259     1.95945724
 C                     0.00000000     0.77788111     1.10996481
 H                    -2.07045488    -1.28858437     0.02692239
 C                    -1.07976532    -0.81019388    -0.05109156
 H                    -2.07045488     1.28858437     0.02692239
 C                    -1.07976532     0.81019388    -0.05109156
