    16
 geometry
 H                     2.06685432    -1.28967628     0.02863572
 C                     1.07846821    -0.80809708    -0.04633429
 H                     2.06685432     1.28967628     0.02863572
 C                     1.07846821     0.80809708    -0.04633429
 H                     0.00000000    -1.50278621    -2.06334002
 C                     0.00000000    -1.33387083    -0.97767285
 H                     0.00000000     1.50278621    -2.06334002
 C                     0.00000000     1.33387083    -0.97767285
 H                     0.00000000    -1.45667683     1.97613208
 C                     0.00000000    -0.77840948     1.11047350
 H                     0.00000000     1.45667683     1.97613208
 C                     0.00000000     0.77840948     1.11047350
 H                    -2.06685432    -1.28967628     0.02863572
 C                    -1.07846821    -0.80809708    -0.04633429
 H                    -2.06685432     1.28967628     0.02863572
 C                    -1.07846821     0.80809708    -0.04633429
