    16
 geometry
 H                     2.07529702    -1.27773565     0.01758572
 C                     1.07940952    -0.80659717    -0.05652462
 H                     2.07529702     1.27773565     0.01758572
 C                     1.07940952     0.80659717    -0.05652462
 H                     0.00000000    -1.73598345    -1.99971785
 C                     0.00000000    -1.33988327    -0.97862377
 H                     0.00000000     1.73598345    -1.99971785
 C                     0.00000000     1.33988327    -0.97862377
 H                     0.00000000    -1.46327340     1.96450675
 C                     0.00000000    -0.78196144     1.10190823
 H                     0.00000000     1.46327340     1.96450675
 C                     0.00000000     0.78196144     1.10190823
 H                    -2.07529702    -1.27773565     0.01758572
 C                    -1.07940952    -0.80659717    -0.05652462
 H                    -2.07529702     1.27773565     0.01758572
 C                    -1.07940952     0.80659717    -0.05652462
