    16
 geometry
 H                     2.06721087    -1.28929797     0.02086644
 C                     1.07859343    -0.80828295    -0.05388342
 H                     2.06721087     1.28929797     0.02086644
 C                     1.07859343     0.80828295    -0.05388342
 H                     0.00000000    -1.50355455    -2.07078543
 C                     0.00000000    -1.33405546    -0.98506988
 H                     0.00000000     1.50355455    -2.07078543
 C                     0.00000000     1.33405546    -0.98506988
 H                     0.00000000    -1.45662892     1.96880092
 C                     0.00000000    -0.77866605     1.10287865
 H                     0.00000000     1.45662892     1.96880092
 C                     0.00000000     0.77866605     1.10287865
 H                    -2.06721087    -1.28929797     0.02086644
 C                    -1.07859343    -0.80828295    -0.05388342
 H                    -2.06721087     1.28929797     0.02086644
 C                    -1.07859343     0.80828295    -0.05388342
