    16
 geometry
 H                     2.05103842    -1.34321861     0.01600688
 C                     1.08648213    -0.81628495    -0.05110409
 H                     2.05103842     1.34321861     0.01600688
 C                     1.08648213     0.81628495    -0.05110409
 H                     0.00000000    -1.74160791    -1.99953779
 C                     0.00000000    -1.30973276    -0.99368473
 H                     0.00000000     1.74160791    -1.99953779
 C                     0.00000000     1.30973276    -0.99368473
 H                     0.00000000    -1.43324591     1.97975872
 C                     0.00000000    -0.78164546     1.09385380
 H                     0.00000000     1.43324591     1.97975872
 C                     0.00000000     0.78164546     1.09385380
 H                    -2.05103842    -1.34321861     0.01600688
 C                    -1.08648213    -0.81628495    -0.05110409
 H                    -2.05103842     1.34321861     0.01600688
 C                    -1.08648213     0.81628495    -0.05110409
