    16
 geometry
 H                     2.06517685    -1.31079943     0.00564238
 C                     1.08635727    -0.80640953    -0.05863344
 H                     2.06517685     1.31079943     0.00564238
 C                     1.08635727     0.80640953    -0.05863344
 H                     0.00000000    -1.75604050    -1.98233962
 C                     0.00000000    -1.32300026    -0.97513399
 H                     0.00000000     1.75604050    -1.98233962
 C                     0.00000000     1.32300026    -0.97513399
 H                     0.00000000    -1.42715736     1.97951727
 C                     0.00000000    -0.77393835     1.09413403
 H                     0.00000000     1.42715736     1.97951727
 C                     0.00000000     0.77393835     1.09413403
 H                    -2.06517685    -1.31079943     0.00564238
 C                    -1.08635727    -0.80640953    -0.05863344
 H                    -2.06517685     1.31079943     0.00564238
 C                    -1.08635727     0.80640953    -0.05863344
